Version 4
SHEET 1 1424 680
WIRE 96 -560 16 -560
WIRE 144 -560 96 -560
WIRE 16 -528 16 -560
WIRE 16 -432 16 -448
WIRE 144 -336 144 -560
WIRE 144 -336 48 -336
WIRE -192 -320 -272 -320
WIRE -96 -320 -192 -320
WIRE -272 -304 -272 -320
WIRE 240 -288 48 -288
WIRE 304 -288 240 -288
WIRE 336 -288 304 -288
WIRE -96 -256 -160 -256
WIRE 304 -256 304 -288
WIRE 80 -240 48 -240
WIRE 80 -208 80 -240
WIRE -272 -192 -272 -224
WIRE 304 -160 304 -192
WIRE -160 -128 -160 -256
WIRE -16 -128 -160 -128
WIRE 240 -128 240 -288
WIRE 240 -128 64 -128
WIRE -160 -80 -160 -128
WIRE -160 48 -160 -16
WIRE 128 192 80 192
WIRE -64 208 -208 208
WIRE -208 224 -208 208
WIRE 176 240 80 240
WIRE 224 240 176 240
WIRE 256 240 224 240
WIRE -64 272 -112 272
WIRE 224 272 224 240
WIRE 128 288 80 288
WIRE 128 320 128 288
WIRE -208 336 -208 304
WIRE -112 368 -112 272
WIRE 176 368 176 240
WIRE 176 368 -112 368
WIRE 224 368 224 336
FLAG -272 -192 0
FLAG 16 -432 0
FLAG 256 240 OUT_TRAN
FLAG -192 -320 IN_AC
FLAG -160 48 0
FLAG 80 -208 0
FLAG 336 -288 OUT_AC
FLAG 96 -560 VDD
FLAG 128 320 0
FLAG 128 192 VDD
FLAG -208 336 0
FLAG 224 368 0
FLAG 304 -160 0
SYMBOL voltage -272 -320 M0
WINDOW 123 24 124 Left 2
WINDOW 39 0 0 Left 0
SYMATTR InstName V1
SYMATTR Value 1
SYMATTR Value2 AC 1
SYMBOL voltage 16 -544 M0
WINDOW 123 0 0 Left 0
WINDOW 39 0 0 Left 0
SYMATTR InstName V2
SYMATTR Value {vdd}
SYMBOL res 80 -144 R90
WINDOW 0 0 56 VBottom 2
WINDOW 3 32 56 VTop 2
SYMATTR InstName R2
SYMATTR Value 10Meg
SYMBOL cap -176 -80 R0
SYMATTR InstName C2
SYMATTR Value 10m
SYMBOL fake_reference -32 -288 R0
SYMATTR InstName X1
SYMATTR SpiceLine res={res} cap={cap} vdd={vdd}
SYMBOL fake_reference 0 240 R0
SYMATTR InstName X2
SYMATTR SpiceLine res={res} cap={cap} vdd={vdd}
SYMBOL voltage -208 208 M0
WINDOW 123 24 124 Left 2
WINDOW 39 0 0 Left 0
SYMATTR InstName V3
SYMATTR Value PULSE({1-amp} {1+amp} 1u 10n 10n 1u 2u)
SYMBOL cap 208 272 R0
SYMATTR InstName C1
SYMATTR Value {CL}
SYMBOL cap 288 -256 R0
SYMATTR InstName C3
SYMATTR Value {CL}
TEXT 296 -80 Left 2 !.lib 130nm_bulk.txt
TEXT 296 0 Left 2 !.param res=10k cap=1n cl=10n vdd=2
TEXT 298 48 Left 2 ;.ac dec 10 1 10G
TEXT 296 -40 Left 2 ;.step param cap list 1n 10n 100n
TEXT 296 88 Left 2 !.param amp=100m
TEXT -804 374 Left 2 !.tran 10u
TEXT 296 120 Left 2 !.step param res list 1k 10k 100k
