Version 4
SHEET 1 3000 1348
WIRE -368 -352 -480 -352
WIRE -224 -352 -368 -352
WIRE -64 -352 -224 -352
WIRE 192 -352 -64 -352
WIRE 624 -352 192 -352
WIRE 1040 -352 624 -352
WIRE 1456 -352 1040 -352
WIRE 1856 -352 1456 -352
WIRE 1456 -320 1456 -352
WIRE 192 -304 192 -352
WIRE 624 -304 624 -352
WIRE 1408 -304 1312 -304
WIRE 400 -288 240 -288
WIRE 576 -288 400 -288
WIRE 1040 -224 1040 -352
WIRE 992 -208 928 -208
WIRE 1856 -208 1856 -352
WIRE 1984 -192 1904 -192
WIRE 192 -160 192 -208
WIRE 240 -160 192 -160
WIRE 272 -160 240 -160
WIRE 576 -160 544 -160
WIRE 624 -160 624 -208
WIRE 624 -160 576 -160
WIRE 1456 -160 1456 -224
WIRE 1456 -160 1312 -160
WIRE 1600 -160 1456 -160
WIRE 1312 -128 1312 -160
WIRE 1600 -128 1600 -160
WIRE 192 -112 192 -160
WIRE 624 -112 624 -160
WIRE 1392 -112 1360 -112
WIRE 1552 -112 1520 -112
WIRE 144 -32 96 -32
WIRE 704 -32 672 -32
WIRE 1392 -16 1392 -112
WIRE 1456 -16 1392 -16
WIRE 1600 -16 1600 -32
WIRE 1600 -16 1456 -16
WIRE 1856 -16 1856 -112
WIRE 1856 -16 1600 -16
WIRE -368 16 -368 -352
WIRE -224 16 -224 -352
WIRE -64 16 -64 -352
WIRE 1040 32 1040 -128
WIRE 1312 32 1312 -32
WIRE 1312 32 1040 32
WIRE 1456 32 1312 32
WIRE 1520 32 1520 -112
WIRE 1520 32 1456 32
WIRE -432 80 -464 80
WIRE -288 80 -320 80
WIRE -144 80 -176 80
WIRE -128 80 -144 80
WIRE 0 80 -16 80
WIRE 1312 80 1312 32
WIRE 1600 80 1600 -16
WIRE 192 96 192 -16
WIRE 400 96 192 96
WIRE 624 96 624 -16
WIRE 624 96 400 96
WIRE 400 112 400 96
WIRE 1392 160 1392 -16
WIRE 1392 160 1360 160
WIRE 1520 160 1520 32
WIRE 1552 160 1520 160
WIRE 480 192 448 192
WIRE 1040 192 1040 32
WIRE 1856 192 1856 -16
WIRE 400 224 400 208
WIRE 400 224 128 224
WIRE 400 240 400 224
WIRE 128 256 128 224
WIRE 992 272 928 272
WIRE 2016 272 1904 272
WIRE 480 320 448 320
WIRE -368 384 -368 144
WIRE -368 384 -464 384
WIRE -224 384 -224 144
WIRE -224 384 -368 384
WIRE -64 384 -64 144
WIRE -64 384 -224 384
WIRE 128 384 128 320
WIRE 128 384 -64 384
WIRE 400 384 400 336
WIRE 400 384 128 384
WIRE 1040 384 1040 288
WIRE 1040 384 400 384
WIRE 1312 384 1312 176
WIRE 1312 384 1040 384
WIRE 1600 384 1600 176
WIRE 1600 384 1312 384
WIRE 1856 384 1856 288
WIRE 1856 384 1600 384
WIRE 864 608 768 608
WIRE 1184 608 1024 608
WIRE 864 656 800 656
WIRE 416 672 288 672
WIRE 448 672 416 672
WIRE 352 736 288 736
WIRE 528 736 464 736
WIRE 416 800 368 800
WIRE 528 800 528 736
WIRE 592 800 528 800
WIRE 800 816 800 656
WIRE 800 816 656 816
WIRE 864 816 800 816
WIRE 1120 816 960 816
WIRE 448 848 448 672
WIRE 448 848 416 848
WIRE 592 864 528 864
WIRE 864 864 768 864
WIRE 352 912 288 912
WIRE 528 912 528 864
WIRE 528 912 464 912
WIRE 368 976 368 800
WIRE 368 976 288 976
WIRE 416 976 368 976
WIRE 848 1040 752 1040
WIRE 800 1088 800 816
WIRE 848 1088 800 1088
FLAG 240 -160 INTH
FLAG 96 -32 VIN
IOPIN 96 -32 BiDir
FLAG 576 -160 INTL
FLAG 704 -32 VIP
IOPIN 704 -32 BiDir
FLAG 480 192 CLK
FLAG 400 -288 CLK
FLAG 928 -208 INTL
FLAG 2016 272 _CLK
FLAG 1984 -192 INTH
FLAG 1456 -16 OUTL
FLAG 1456 32 OUTH
FLAG 768 608 OUTH
FLAG 1184 608 RESULT
IOPIN 1184 608 BiDir
FLAG 768 864 _CLK
FLAG 288 736 OUTH
FLAG 1120 816 DONE
IOPIN 1120 816 BiDir
FLAG 288 912 OUTL
FLAG 288 672 VDD
FLAG 928 272 _CLK
FLAG 1312 -304 _CLK
FLAG -464 80 CLKIN
IOPIN -464 80 BiDir
FLAG -144 80 CLK
FLAG 752 1040 OUTL
FLAG 0 80 _CLK
FLAG 480 320 _CLK
FLAG -464 384 VSS
IOPIN -464 384 BiDir
FLAG -480 -352 VDD
IOPIN -480 -352 BiDir
FLAG 288 976 VSS
FLAG 400 96 SRC
SYMBOL pmos 240 -208 R180
SYMATTR InstName M4
SYMATTR Value PMOS W=40u L=1u
SYMBOL nmos 448 112 M0
SYMATTR InstName M2
SYMATTR Value NMOS W=10u L=1u
SYMBOL pmos 1360 -32 R180
WINDOW 3 56 4 Left 2
SYMATTR Value PMOS W=40u L=1u
SYMATTR InstName M8
SYMBOL pmos 1552 -32 M180
WINDOW 3 56 4 Left 2
SYMATTR Value PMOS W=40u L=1u
SYMATTR InstName M10
SYMBOL nmos 1552 80 R0
WINDOW 3 56 60 Left 2
SYMATTR Value NMOS W=10u L=1u
SYMATTR InstName M11
SYMBOL nmos 1360 80 M0
WINDOW 3 56 60 Left 2
SYMATTR Value NMOS W=10u L=1u
SYMATTR InstName M12
SYMBOL nmos 1904 192 M0
WINDOW 3 56 60 Left 2
SYMATTR Value NMOS W=1u L=1u
SYMATTR InstName M13
SYMBOL pmos 1904 -112 R180
WINDOW 3 56 4 Left 2
SYMATTR Value PMOS W=4u L=1u
SYMATTR InstName M15
SYMBOL pmos 992 -128 M180
WINDOW 3 56 4 Left 2
SYMATTR Value PMOS W=4u L=1u
SYMATTR InstName M16
SYMBOL Digital\\dflop 944 560 R0
SYMATTR InstName A1
SYMBOL Digital\\xor 640 768 R0
SYMATTR InstName A3
SYMBOL nmos 992 192 R0
WINDOW 3 56 60 Left 2
SYMATTR Value NMOS W=1u L=1u
SYMATTR InstName M6
SYMBOL pmos 1408 -224 M180
SYMATTR InstName M7
SYMATTR Value PMOS W=4u L=1u
SYMBOL skewH_inverter 416 720 R0
SYMATTR InstName X1
SYMBOL skewH_inverter 416 896 R0
SYMATTR InstName X2
SYMBOL Digital\\srflop 912 768 R0
SYMATTR InstName A7
SYMBOL pmos 576 -208 M180
SYMATTR InstName M9
SYMATTR Value PMOS W=40u L=1u
SYMBOL nmos 144 -112 R0
SYMATTR InstName M14
SYMATTR Value NMOS W=1u L=10u
SYMBOL nmos 672 -112 M0
SYMATTR InstName M1
SYMATTR Value NMOS W=1u L=10u
SYMBOL skewM_inverter -368 64 R0
SYMATTR InstName X5
SYMBOL skewM_inverter -224 64 R0
SYMATTR InstName X6
SYMBOL Digital\\dflop 928 992 R0
SYMATTR InstName A5
SYMBOL skewM_inverter -64 64 R0
SYMATTR InstName X7
SYMBOL cap 144 256 M0
SYMATTR InstName C1
SYMATTR Value {C_quench}
SYMBOL nmos 448 240 M0
SYMATTR InstName M3
SYMATTR Value NMOS W=10u L=1u
TEXT -648 560 Left 2 !.lib 130nm_bulk.txt
TEXT -640 512 Left 2 !.param width=1u len=1u
TEXT -368 616 Left 2 !.param C_slow=1f C_quench=100f
TEXT 456 456 Left 2 !.ic V(SRC)=0.2 V(INTH)=0.5 V(INTL)=0.5
