Version 4
SHEET 1 1376 1188
WIRE -352 -656 -352 -704
WIRE -416 -624 -464 -624
WIRE -240 -592 -304 -592
WIRE -416 -560 -464 -560
WIRE -240 -560 -304 -560
WIRE -416 -496 -384 -528
WIRE -416 -496 -448 -496
WIRE -352 -464 -352 -528
WIRE -800 -352 -800 -400
WIRE -688 -352 -688 -400
WIRE -352 -320 -352 -368
WIRE -1408 -304 -1408 -400
WIRE -416 -288 -464 -288
WIRE -240 -256 -304 -256
WIRE -1248 -224 -1248 -288
WIRE -1184 -224 -1248 -224
WIRE -880 -224 -880 -400
WIRE -800 -224 -800 -272
WIRE -800 -224 -880 -224
WIRE -688 -224 -688 -272
WIRE -688 -224 -800 -224
WIRE -416 -224 -464 -224
WIRE -240 -224 -304 -224
WIRE -1248 -192 -1248 -224
WIRE -1056 -192 -1056 -288
WIRE -1136 -176 -1184 -224
WIRE -1104 -176 -1136 -176
WIRE -880 -176 -880 -224
WIRE -416 -160 -384 -192
WIRE -416 -160 -448 -160
WIRE -1104 -128 -1136 -128
WIRE -352 -128 -352 -192
WIRE -1248 -80 -1248 -112
WIRE -1184 -80 -1136 -128
WIRE -1184 -80 -1248 -80
WIRE -1056 -80 -1056 -112
WIRE -1408 48 -1408 -224
WIRE -1296 48 -1408 48
WIRE -1248 48 -1248 -80
WIRE -1248 48 -1296 48
WIRE -1056 48 -1056 0
WIRE -1056 48 -1248 48
WIRE -880 48 -880 -96
WIRE -880 48 -1056 48
WIRE -1296 112 -1296 48
FLAG -352 -368 VDD
FLAG -464 -224 VIN
FLAG -1296 112 0
FLAG -880 -400 VIN
FLAG -1408 -400 VDD
FLAG -464 -288 VIP
FLAG -1248 -288 CLKRAW
FLAG -1056 -288 _CLKRAW
FLAG -800 -400 VIP
FLAG -1504 -640 0
FLAG -448 -160 CLKRAW
FLAG -352 -128 0
FLAG -240 -256 RESULT
FLAG -240 -224 DONE
FLAG -352 -704 VDD
FLAG -464 -560 VIN
FLAG -464 -624 VIP_AC
FLAG -448 -496 VDD
FLAG -352 -464 0
FLAG -240 -592 RESULT
FLAG -240 -560 DONE
FLAG -688 -400 VIP_AC
SYMBOL voltage -880 -192 M0
WINDOW 123 0 0 Left 0
WINDOW 39 0 0 Left 0
SYMATTR InstName V1
SYMATTR Value 0.5
SYMBOL voltage -1408 -320 M0
WINDOW 123 0 0 Left 0
WINDOW 39 0 0 Left 0
SYMATTR InstName V2
SYMATTR Value 1
SYMBOL voltage -1248 -208 M0
WINDOW 123 0 0 Left 0
WINDOW 39 0 0 Left 0
SYMATTR InstName V3
SYMATTR Value PULSE(0 1 500n 10n 10n 1u 5u 2)
SYMBOL e -1056 -208 R0
SYMATTR InstName E1
SYMATTR Value -1
SYMBOL voltage -1056 -96 M0
WINDOW 123 0 0 Left 0
WINDOW 39 0 0 Left 0
SYMATTR InstName V4
SYMATTR Value 1
SYMBOL voltage -1504 -736 R0
WINDOW 123 0 0 Left 0
WINDOW 39 0 0 Left 0
SYMATTR InstName V5
SYMATTR Value PULSE({-input} {input} 0 10u 10n 10u 10u)
SYMBOL voltage -800 -368 M0
WINDOW 123 0 0 Left 0
WINDOW 39 0 0 Left 0
SYMATTR InstName V6
SYMATTR Value {input}
SYMBOL dyn_comparator -368 -256 R0
SYMATTR InstName X8
SYMBOL dyn_comparator -368 -592 R0
SYMATTR InstName X1
SYMBOL voltage -688 -368 M0
WINDOW 123 24 44 Left 2
WINDOW 39 0 0 Left 0
SYMATTR Value2 AC 1
SYMATTR InstName V7
SYMATTR Value 0
TEXT -944 192 Left 2 !.lib 130nm_bulk.txt
TEXT -936 296 Left 2 ;.tran 3u
TEXT -944 248 Left 2 !.param width=1u len=1u
TEXT -944 336 Left 2 ;.step param WIDTH list 1u 10u 20u
TEXT -952 376 Left 2 ;.step param LEN list 1u 2u
TEXT -416 280 Left 2 !.param input=10m
TEXT -672 104 Left 2 !.step param input -100u 100u 50u
TEXT -648 168 Left 2 ;.step param c_slow list 1p 2p 3p
TEXT -704 456 Left 2 !.param C_slow=1f C_quench=100f
TEXT -1666 476 Left 2 !.ac dec 10 1 1G
