Version 4
SHEET 1 2336 920
WIRE 944 -128 560 -128
WIRE 1040 -128 944 -128
WIRE 1360 -128 1040 -128
WIRE 1776 -128 1360 -128
WIRE 1952 -128 1776 -128
WIRE 2144 -128 1952 -128
WIRE 560 -32 560 -128
WIRE 944 -32 944 -128
WIRE 1360 -32 1360 -128
WIRE 1776 -32 1776 -128
WIRE 1952 -32 1952 -128
WIRE 2144 -32 2144 -128
WIRE -384 -16 -416 -16
WIRE -224 -16 -304 -16
WIRE 688 -16 608 -16
WIRE 1152 -16 992 -16
WIRE 1312 -16 1152 -16
WIRE 1856 -16 1824 -16
WIRE 2048 -16 2000 -16
WIRE 2096 -16 2048 -16
WIRE -416 112 -416 -16
WIRE 688 112 688 -16
WIRE 1152 112 1152 -16
WIRE 1152 112 688 112
WIRE 1680 112 1152 112
WIRE 1856 112 1856 -16
WIRE 1856 112 1680 112
WIRE 1952 112 1952 64
WIRE 1952 112 1856 112
WIRE 2048 112 2048 -16
WIRE 2144 112 2144 64
WIRE 2144 112 2048 112
WIRE 944 192 944 64
WIRE 2240 192 944 192
WIRE -416 208 -416 192
WIRE 1680 224 1680 112
WIRE 1952 256 1952 112
WIRE 2144 256 2144 112
WIRE 560 272 560 64
WIRE 944 272 944 192
WIRE 1360 304 1360 64
WIRE 1488 304 1360 304
WIRE 1584 304 1488 304
WIRE 1632 304 1584 304
WIRE 1776 304 1776 64
WIRE 1776 304 1728 304
WIRE 1632 336 1632 304
WIRE 1680 336 1680 320
WIRE 1680 336 1632 336
WIRE 1904 336 1680 336
WIRE 2240 336 2240 192
WIRE 2240 336 2192 336
WIRE 1488 384 1488 304
WIRE 1952 384 1952 352
WIRE 2048 384 1952 384
WIRE 2144 384 2144 352
WIRE 2144 384 2048 384
WIRE 944 416 944 352
WIRE 1040 416 944 416
WIRE 1360 416 1360 304
WIRE 1360 416 1248 416
WIRE 1776 416 1776 304
WIRE 1856 416 1776 416
WIRE 944 432 944 416
WIRE 1360 432 1360 416
WIRE 1776 448 1776 416
WIRE 2048 448 2048 384
WIRE 1040 512 1040 416
WIRE 1040 512 992 512
WIRE 1248 512 1248 416
WIRE 1312 512 1248 512
WIRE 1856 528 1856 416
WIRE 1856 528 1824 528
WIRE 2000 528 1856 528
WIRE 560 592 560 352
WIRE 944 592 944 528
WIRE 944 592 560 592
WIRE 1152 592 944 592
WIRE 1360 592 1360 528
WIRE 1360 592 1152 592
WIRE 1488 592 1488 448
WIRE 1488 592 1360 592
WIRE 1776 592 1776 544
WIRE 1776 592 1488 592
WIRE 2048 592 2048 544
WIRE 2048 592 1776 592
WIRE 1152 672 1152 592
FLAG -416 208 0
FLAG -224 -16 VDD
FLAG 1040 -128 VDD
FLAG 1152 672 0
FLAG 1584 304 out
SYMBOL voltage -416 96 M0
WINDOW 123 0 0 Left 0
WINDOW 39 0 0 Left 0
SYMATTR InstName V1
SYMATTR Value {vdd}
SYMBOL pmos 992 64 R180
SYMATTR InstName M1
SYMATTR Value EX_PMOS W=10u L=1u
SYMBOL pmos 1312 64 M180
SYMATTR InstName M2
SYMATTR Value EX_PMOS W=10u L=1u
SYMBOL res 928 256 R0
SYMATTR InstName R1
SYMATTR Value {RES}
SYMBOL cap 1472 384 R0
SYMATTR InstName C1
SYMATTR Value 100p
SYMBOL res -288 -32 R90
WINDOW 0 0 56 VBottom 2
WINDOW 3 32 56 VTop 2
SYMATTR InstName R4
SYMATTR Value 1m
SYMBOL nmos 1312 432 R0
SYMATTR InstName M9
SYMATTR Value EX_NMOS W=100u L=1u
SYMBOL nmos 992 432 M0
SYMATTR InstName M10
SYMATTR Value EX_NMOS W=100u L=1u M={MULT}
SYMBOL nmos 2000 448 R0
SYMATTR InstName M4
SYMATTR Value EX_NMOS W=10u L=1u
SYMBOL nmos 1904 256 R0
WINDOW 3 56 72 Invisible 2
SYMATTR InstName M5
SYMATTR Value EX_NMOS W=100u L=1u
SYMBOL nmos 2192 256 M0
WINDOW 3 56 72 Invisible 2
SYMATTR InstName M6
SYMATTR Value EX_NMOS W=100u L=1u
SYMBOL pmos 2000 64 R180
WINDOW 3 56 72 Invisible 2
SYMATTR InstName M7
SYMATTR Value EX_PMOS W=10u L=1u
SYMBOL pmos 2096 64 M180
WINDOW 3 56 72 Invisible 2
SYMATTR InstName M8
SYMATTR Value EX_PMOS W=10u L=1u
SYMBOL nmos 1824 448 M0
WINDOW 3 56 72 Invisible 2
SYMATTR InstName M11
SYMATTR Value EX_NMOS W=10u L=1u
SYMBOL pmos 1824 64 R180
WINDOW 3 56 72 Invisible 2
SYMATTR InstName M12
SYMATTR Value EX_PMOS W=10u L=1u
SYMBOL nmos 1728 224 M0
WINDOW 3 56 72 Invisible 2
SYMATTR InstName M3
SYMATTR Value EX_NMOS W=10u L=1u
SYMBOL pmos 608 64 R180
SYMATTR InstName M13
SYMATTR Value EX_PMOS W=10u L=1u
SYMBOL res 544 256 R0
SYMATTR InstName R2
SYMATTR Value 300k
TEXT -384 384 Left 2 !.lib 130nm_bulk.txt
TEXT -384 352 Left 2 !.param VDD=1.8 MULT=4 RES=10k GAIN=10k
TEXT -512 744 Left 2 !.tran 1000u
TEXT -512 768 Left 2 ;.ac dec 10 1 10G
TEXT 1608 696 Left 2 ;.ic V(out)=450m
TEXT 1608 656 Left 2 !.ic V(VDD)=0
TEXT -272 480 Left 2 ;.step param temp list -40 0 27 40 85
TEXT 176 824 Left 2 !.param RBW=1k CBW=10p
TEXT -8 904 Left 2 ;.step param RES list 1k 3k 10k 30k 100k
